         675

O     0.283781E+02  0.830785E+01  0.765680E+01
H     0.292012E+02  0.803015E+01  0.793164E+01
C     0.291787E+02  0.660097E+01  0.776102E+01
O     0.447488E+02  0.150692E+02  0.113000E+02
H     0.452096E+02  0.151191E+02  0.121105E+02
C     0.461773E+02  0.140279E+02  0.122419E+02
O     0.297340E+02  0.441760E+02  0.417585E+02
H     0.294344E+02  0.433272E+02  0.413383E+02
C     0.305198E+02  0.424585E+02  0.415658E+02
O     0.251643E+02  0.184562E+01  0.361390E+02
H     0.245853E+02  0.113231E+01  0.360382E+02
C     0.252229E+02  0.256502E-01  0.354473E+02
O     0.105218E+01  0.344353E+02  0.395294E+02
H     0.503843E+00  0.339661E+02  0.388687E+02
C    -0.868578E+00  0.342686E+02  0.392350E+02
O     0.101321E+02  0.339686E+02  0.335748E+02
H     0.103093E+02  0.341803E+02  0.344825E+02
C     0.107810E+02  0.329347E+02  0.349546E+02
O    -0.623215E+00  0.162358E+02  0.602005E+01
H     0.196725E+00  0.167022E+02  0.606641E+01
C     0.577751E+00  0.164836E+02  0.740926E+01
O     0.651182E+01  0.994097E+01  0.132566E+02
H     0.602597E+01  0.103549E+02  0.125250E+02
C     0.490034E+01  0.960927E+01  0.120302E+02
O     0.445577E+01  0.457501E+02  0.149286E+02
H     0.367386E+01  0.459789E+02  0.154334E+02
C     0.347853E+01  0.451517E+02  0.166026E+02
O     0.354187E+01  0.726381E+01  0.278166E+02
H     0.305585E+01  0.795556E+01  0.274961E+02
C     0.304816E+01  0.799937E+01  0.260813E+02
O     0.233660E+02  0.155075E+02  0.385311E+01
H     0.239081E+02  0.156220E+02  0.310466E+01
C     0.240442E+02  0.170513E+02  0.283686E+01
O     0.232168E+02  0.454538E+02  0.652443E+01
H     0.232614E+02  0.446830E+02  0.588147E+01
C     0.244701E+02  0.447207E+02  0.504510E+01
O    -0.610668E-01  0.311516E+02  0.352315E+02
H    -0.574506E+00  0.307602E+02  0.344987E+02
C    -0.188188E+01  0.312601E+02  0.346032E+02
O     0.382440E+02  0.422872E+02  0.295532E+02
H     0.387150E+02  0.416798E+02  0.289417E+02
C     0.387972E+02  0.404326E+02  0.295764E+02
O     0.369641E+02  0.450810E+02  0.280365E+02
H     0.371165E+02  0.455863E+02  0.288364E+02
C     0.384468E+02  0.462046E+02  0.288871E+02
O     0.185333E+02  0.302646E+02  0.248279E+02
H     0.186031E+02  0.304007E+02  0.257572E+02
C     0.199617E+02  0.308088E+02  0.261831E+02
O     0.211063E+02  0.377076E+01  0.340963E+01
H     0.219707E+02  0.390352E+01  0.315962E+01
C     0.226584E+02  0.288956E+01  0.389415E+01
O     0.175398E+01  0.137824E+02  0.380818E+01
H     0.104811E+01  0.134413E+02  0.323944E+01
C     0.161993E+01  0.130681E+02  0.201836E+01
O     0.225932E+02  0.346045E+02  0.232969E+02
H     0.222077E+02  0.338594E+02  0.227174E+02
C     0.218601E+02  0.326884E+02  0.235193E+02
O     0.279569E+02  0.211983E+02  0.158456E+02
H     0.289348E+02  0.213383E+02  0.158498E+02
C     0.294417E+02  0.202507E+02  0.151274E+02
O     0.197635E+02  0.407176E+02  0.229718E+02
H     0.199805E+02  0.416074E+02  0.232640E+02
C     0.211045E+02  0.419293E+02  0.224710E+02
O     0.254640E+02  0.475252E+02  0.223637E+01
H     0.254426E+02  0.465881E+02  0.249570E+01
C     0.268237E+02  0.462286E+02  0.272441E+01
O     0.472031E+01  0.195954E+02  0.704298E+01
H     0.553739E+01  0.196234E+02  0.753456E+01
C     0.524918E+01  0.203015E+02  0.874455E+01
O     0.306284E+02  0.332690E+02  0.131408E+02
H     0.311933E+02  0.339120E+02  0.135215E+02
C     0.307316E+02  0.352246E+02  0.135340E+02
O     0.995138E+01  0.294715E+02  0.197409E+02
H     0.963774E+01  0.294704E+02  0.189087E+02
C     0.819328E+01  0.293760E+02  0.188963E+02
O     0.344479E+02 -0.376440E+00  0.587808E+01
H     0.343995E+02  0.393036E+00  0.532645E+01
C     0.349022E+02  0.147428E+01  0.609833E+01
O     0.182398E+02  0.128259E+02  0.134454E+01
H     0.188022E+02  0.134319E+02  0.175013E+01
C     0.180325E+02  0.146752E+02  0.179193E+01
O     0.956069E+01  0.405100E+02  0.386605E+02
H     0.935357E+01  0.407361E+02  0.395740E+02
C     0.799506E+01  0.414138E+02  0.395739E+02
O     0.199868E+02  0.466995E+02  0.638209E+01
H     0.201838E+02  0.476734E+02  0.642950E+01
C     0.192284E+02  0.483579E+02  0.556648E+01
O     0.395490E+02  0.224132E+01  0.275211E+02
H     0.386229E+02  0.231044E+01  0.273295E+02
C     0.384990E+02  0.113194E+01  0.264432E+02
O     0.141437E+01  0.525715E+01  0.192770E+02
H     0.839418E+00  0.598192E+01  0.188654E+02
C     0.965075E+00  0.579457E+01  0.174583E+02
O     0.268979E+02  0.159102E+02  0.221376E+02
H     0.263721E+02  0.153665E+02  0.214809E+02
C     0.254568E+02  0.146889E+02  0.222573E+02
O     0.338952E+01  0.265652E+02  0.373379E+02
H     0.431990E+01  0.265331E+02  0.370153E+02
C     0.439254E+01  0.254154E+02  0.361629E+02
O     0.395230E+02  0.311351E+01  0.314608E+02
H     0.404424E+02  0.313697E+01  0.318009E+02
C     0.401310E+02  0.316039E+01  0.331780E+02
O     0.101218E+02  0.156591E+02  0.354537E+02
H     0.107593E+02  0.158210E+02  0.347389E+02
C     0.104884E+02  0.146297E+02  0.339365E+02
O     0.228812E+02  0.146068E+02  0.281599E+02
H     0.233002E+02  0.139144E+02  0.275656E+02
C     0.221183E+02  0.135245E+02  0.269523E+02
O     0.291582E+02  0.233890E+02  0.944541E+01
H     0.293914E+02  0.240356E+02  0.100609E+02
C     0.288633E+02  0.252428E+02  0.961442E+01
O     0.109003E+02  0.141752E+02  0.236863E+02
H     0.104885E+02  0.136647E+02  0.229929E+02
C     0.918692E+01  0.133215E+02  0.235283E+02
O     0.647995E+01  0.825471E+01  0.221487E+02
H     0.618568E+01  0.840368E+01  0.230297E+02
C     0.696701E+01  0.948927E+01  0.236726E+02
O     0.104344E+02  0.243441E+02  0.578676E+01
H     0.998548E+01  0.251940E+02  0.589665E+01
C     0.107071E+02  0.261209E+02  0.495629E+01
O     0.231810E+02  0.350998E+02  0.346580E+02
H     0.235220E+02  0.343833E+02  0.352266E+02
C     0.238834E+02  0.348689E+02  0.365455E+02
O     0.227361E+01  0.491838E+01  0.678008E+01
H     0.281887E+01  0.562283E+01  0.637762E+01
C     0.238128E+01  0.683969E+01  0.685682E+01
O     0.277188E+02  0.187318E+02  0.587168E+01
H     0.277411E+02  0.197077E+02  0.591756E+01
C     0.285516E+02  0.201385E+02  0.483514E+01
O     0.440610E+01  0.279161E+02  0.439521E+02
H     0.407107E+01  0.272985E+02  0.433480E+02
C     0.325805E+01  0.280578E+02  0.424620E+02
O     0.267204E+02  0.458653E+02  0.386205E+02
H     0.269288E+02  0.466775E+02  0.391370E+02
C     0.258344E+02  0.469694E+02  0.399573E+02
O    -0.325167E+00  0.743566E+01  0.184163E+02
H    -0.627675E+00  0.835147E+01  0.184046E+02
C    -0.108988E+01  0.890376E+01  0.196584E+02
O     0.297459E+02  0.262013E+02  0.360810E+02
H     0.287679E+02  0.260254E+02  0.360872E+02
C     0.283639E+02  0.249688E+02  0.370029E+02
O    -0.870975E+00  0.171874E+02  0.337128E+01
H    -0.516282E+00  0.177245E+02  0.274508E+01
C     0.737477E+00  0.180698E+02  0.330600E+01
O     0.694216E+01  0.296199E+02  0.427765E+02
H     0.688548E+01  0.299192E+02  0.437217E+02
C     0.806987E+01  0.306136E+02  0.440522E+02
O     0.216981E+01  0.189847E+02  0.605119E+01
H     0.308088E+01  0.192165E+02  0.611112E+01
C     0.354168E+01  0.196719E+02  0.481592E+01
O     0.246552E+02  0.127108E+02  0.279560E+02
H     0.254188E+02  0.121986E+02  0.281147E+02
C     0.265851E+02  0.129167E+02  0.282946E+02
O     0.295097E+02  0.168418E+02  0.712912E+01
H     0.286415E+02  0.171930E+02  0.690680E+01
C     0.278655E+02  0.171307E+02  0.811427E+01
O     0.854342E+01  0.453486E+02  0.443910E+02
H     0.830915E+01  0.459516E+02  0.436836E+02
C     0.870561E+01  0.472405E+02  0.441801E+02
O     0.346885E+02  0.253366E+02  0.465259E+02
H     0.342541E+02  0.258669E+02  0.457896E+02
C     0.347408E+02  0.255883E+02  0.445063E+02
O     0.221653E+02  0.336388E+02  0.341260E+02
H     0.213333E+02  0.339022E+02  0.336509E+02
C     0.203933E+02  0.329856E+02  0.341440E+02
O    -0.612450E+00  0.191475E+01  0.424411E+01
H    -0.118278E+01  0.121342E+01  0.393131E+01
C    -0.115768E+01  0.132279E+01  0.243946E+01
O     0.512777E+01  0.279011E+02  0.365133E+02
H     0.575512E+01  0.286030E+02  0.363269E+02
C     0.706001E+01  0.280971E+02  0.358893E+02
O     0.315246E+02  0.298300E+02  0.346260E+02
H     0.321983E+02  0.297788E+02  0.339784E+02
C     0.326421E+02  0.311408E+02  0.337620E+02
O     0.453986E+02  0.373970E+01  0.445641E+01
H     0.461415E+02  0.411432E+01  0.496490E+01
C     0.462297E+02  0.541786E+01  0.437257E+01
O     0.191558E+02  0.202492E+02 -0.339275E+00
H     0.184310E+02  0.207726E+02 -0.641168E-01
C     0.174458E+02  0.207824E+02 -0.100978E+01
O     0.857102E+01  0.201695E+02  0.591457E+01
H     0.876358E+01  0.208206E+02  0.528109E+01
C     0.760289E+01  0.215869E+02  0.502653E+01
O     0.862649E+01  0.327215E+02  0.320495E+02
H     0.945232E+01  0.331914E+02  0.320721E+02
C     0.968759E+01  0.335024E+02  0.306957E+02
O     0.193515E+02  0.449109E+02  0.512719E+01
H     0.190765E+02  0.449182E+02  0.601371E+01
C     0.189256E+02  0.435347E+02  0.643600E+01
O     0.262745E+02  0.222442E+02  0.169193E+02
H     0.263409E+02  0.213845E+02  0.165034E+02
C     0.255571E+02  0.204607E+02  0.172914E+02
O     0.711584E+00  0.328028E+02  0.374281E+02
H     0.763716E+00  0.324456E+02  0.365714E+02
C     0.138148E+01  0.335597E+02  0.358434E+02
O     0.106856E+02  0.417918E+02  0.367044E+02
H     0.105015E+02  0.409890E+02  0.371376E+02
C     0.104569E+02  0.400297E+02  0.361013E+02
O     0.118874E+02  0.433798E+02  0.373962E+02
H     0.116499E+02  0.435257E+02  0.364359E+02
C     0.112681E+02  0.448732E+02  0.362995E+02
O     0.841517E+01  0.239299E+02  0.884249E+01
H     0.867933E+01  0.234977E+02  0.957791E+01
C     0.798360E+01  0.238901E+02  0.107363E+02
O     0.451845E+02  0.667603E+01  0.783118E+01
H     0.456735E+02  0.742300E+01  0.820810E+01
C     0.470932E+02  0.709291E+01  0.824169E+01
O     0.433568E+02  0.100758E+01  0.563864E+01
H     0.426979E+02  0.169621E+01  0.588262E+01
C     0.413921E+02  0.125462E+01  0.569561E+01
O     0.195919E+02  0.248624E+02  0.159039E+02
H     0.196458E+02  0.251848E+02  0.167977E+02
C     0.184096E+02  0.254573E+02  0.174308E+02
O     0.372769E+02  0.394473E+01  0.300738E+02
H     0.381625E+02  0.403229E+01  0.303795E+02
C     0.386857E+02  0.518696E+01  0.298166E+02
O     0.183203E+02  0.405625E+02  0.840226E+00
H     0.180695E+02  0.398414E+02  0.226263E+00
C     0.180917E+02  0.403041E+02 -0.118288E+01
O     0.316879E+02  0.263872E+02  0.345779E+02
H     0.314387E+02  0.263459E+02  0.355014E+02
C     0.325592E+02  0.263848E+02  0.363540E+02
O     0.228560E+02  0.354359E+02  0.214429E+02
H     0.230603E+02  0.361599E+02  0.207830E+02
C     0.220615E+02  0.372223E+02  0.206837E+02
O     0.415674E+02  0.394331E+01  0.305190E+02
H     0.421335E+02  0.441994E+01  0.299086E+02
C     0.431166E+02  0.536525E+01  0.303805E+02
O     0.763270E+01  0.113031E+02  0.122943E+02
H     0.832922E+01  0.119538E+02  0.123718E+02
C     0.783921E+01  0.132805E+02  0.121376E+02
O     0.938860E+01  0.433650E+02  0.453818E+02
H     0.895442E+01  0.441600E+02  0.455174E+02
C     0.906713E+01  0.444280E+02  0.469759E+02
O     0.175917E+02  0.293318E+02  0.223540E+02
H     0.182240E+02  0.299068E+02  0.227253E+02
C     0.186333E+02  0.309742E+02  0.218330E+02
O     0.457134E+02  0.119067E+01  0.186366E+02
H     0.459154E+02  0.192915E+01  0.180983E+02
C     0.471279E+02  0.185479E+01  0.174689E+02
O     0.735769E+01  0.449146E+02  0.424097E+02
H     0.680892E+01  0.444312E+02  0.418056E+02
C     0.694812E+01  0.449496E+02  0.404884E+02
O     0.293985E+02  0.105616E+02  0.251071E+02
H     0.289747E+02  0.980524E+01  0.255149E+02
C     0.277186E+02  0.102506E+02  0.259884E+02
O     0.150964E+02  0.154933E+02  0.191291E+02
H     0.146854E+02  0.163771E+02  0.191108E+02
C     0.135346E+02  0.162842E+02  0.200001E+02
O     0.379564E-01  0.108870E+02  0.146155E+02
H    -0.524389E+00  0.114658E+02  0.140749E+02
C    -0.186648E+01  0.109126E+02  0.141495E+02
O     0.268623E+02  0.338626E+02  0.211416E+02
H     0.268766E+02  0.329529E+02  0.213993E+02
C     0.261376E+02  0.322985E+02  0.203285E+02
O     0.859485E+01  0.215274E+02  0.258163E+02
H     0.813813E+01  0.217904E+02  0.265991E+02
C     0.720421E+01  0.207011E+02  0.268873E+02
O     0.332078E+02  0.379090E+02  0.391847E+02
H     0.337931E+02  0.372340E+02  0.387539E+02
C     0.348610E+02  0.371166E+02  0.396342E+02
O     0.316718E+02  0.151249E+02  0.409014E+02
H     0.311980E+02  0.157865E+02  0.413745E+02
C     0.299937E+02  0.157047E+02  0.405979E+02
O     0.595493E+00  0.167632E+02  0.146584E+01
H     0.733486E+00  0.162654E+02  0.619359E+00
C    -0.522521E+00  0.155929E+02  0.246881E+00
O     0.670203E+01  0.674683E+01  0.204769E+02
H     0.705045E+01  0.761519E+01  0.205846E+02
C     0.816395E+01  0.789887E+01  0.197188E+02
O     0.273023E+02  0.181602E+02  0.225497E+02
H     0.273470E+02  0.172936E+02  0.229611E+02
C     0.278146E+02  0.173439E+02  0.242645E+02
O     0.457024E+02  0.810859E+00  0.112286E+02
H     0.453792E+02  0.544515E-02  0.108682E+02
C     0.464961E+02 -0.950778E+00  0.105952E+02
O     0.224534E+02  0.360342E+02  0.325884E+02
H     0.231125E+02  0.361463E+02  0.333022E+02
C     0.243736E+02  0.366399E+02  0.327679E+02
O     0.209642E+02  0.346955E+02  0.321594E+02
H     0.207625E+02  0.353998E+02  0.315449E+02
C     0.194785E+02  0.358553E+02  0.317060E+02
O     0.324423E+02  0.277899E+02  0.329585E+02
H     0.322418E+02  0.268857E+02  0.327742E+02
C     0.309738E+02  0.266913E+02  0.320478E+02
O     0.161139E+02  0.193975E+02  0.341635E+02
H     0.170676E+02  0.196196E+02  0.342234E+02
C     0.171366E+02  0.209563E+02  0.348749E+02
O     0.999400E+01  0.253476E+02  0.281647E+02
H     0.108938E+02  0.257405E+02  0.280501E+02
C     0.107512E+02  0.271398E+02  0.277899E+02
O     0.948332E+01  0.195198E+02  0.258196E+02
H     0.987530E+01  0.187646E+02  0.262649E+02
C     0.109095E+02  0.192705E+02  0.270897E+02
O     0.467598E+02  0.145895E+02  0.382352E+02
H     0.474344E+02  0.150468E+02  0.387832E+02
C     0.476238E+02  0.163054E+02  0.381978E+02
O     0.267925E+02  0.981468E+01  0.859484E+01
H     0.266560E+02  0.904746E+01  0.794699E+01
C     0.262462E+02  0.950049E+01  0.670888E+01
O     0.307462E+02  0.260846E+02  0.254812E+02
H     0.298979E+02  0.262949E+02  0.250812E+02
C     0.290702E+02  0.262454E+02  0.262051E+02
O     0.368221E+02  0.431672E+02  0.265758E+02
H     0.362021E+02  0.438278E+02  0.268409E+02
C     0.349387E+02  0.431097E+02  0.269383E+02
O     0.943772E+01  0.431219E+02  0.496253E+01
H     0.975916E+01  0.440276E+02  0.465395E+01
C     0.895103E+01  0.449658E+02  0.532693E+01
O     0.874755E+01  0.816378E+01  0.130514E+02
H     0.852259E+01  0.847624E+01  0.138851E+02
C     0.950036E+01  0.939269E+01  0.142003E+02
O     0.454887E+02  0.939914E-01  0.503674E+01
H     0.447530E+02 -0.292859E+00  0.545248E+01
C     0.452030E+02 -0.726902E+00  0.672375E+01
O     0.933111E+01  0.240081E+02  0.185862E+02
H     0.909932E+01  0.231589E+02  0.182281E+02
C     0.957328E+01  0.221778E+02  0.191276E+02
O     0.443728E+02 -0.334315E+00  0.127025E+02
H     0.441057E+02 -0.974178E+00  0.133347E+02
C     0.434956E+02 -0.211898E+01  0.126831E+02
O     0.273972E+02  0.115484E+02  0.421407E+02
H     0.267796E+02  0.117889E+02  0.415133E+02
C     0.262601E+02  0.106968E+02  0.408093E+02
O     0.858919E+01  0.232414E+02  0.279116E+02
H     0.886828E+01  0.239985E+02  0.284514E+02
C     0.828851E+01  0.238592E+02  0.297303E+02
O     0.605301E+01  0.456702E+02  0.128386E+02
H     0.629614E+01  0.454012E+02  0.137502E+02
C     0.772325E+01  0.454108E+02  0.140102E+02
O     0.247658E+02  0.336930E+02  0.340867E+02
H     0.251591E+02  0.332882E+02  0.332719E+02
C     0.261704E+02  0.324719E+02  0.339124E+02
O     0.993262E+01  0.403527E+02  0.411687E+02
H     0.100702E+02  0.398663E+02  0.420386E+02
C     0.111377E+02  0.389369E+02  0.418658E+02
O     0.878188E+01  0.211062E+02  0.236533E+02
H     0.940007E+01  0.206784E+02  0.242619E+02
C     0.107051E+02  0.208478E+02  0.236240E+02
O     0.626204E+01  0.319724E+02  0.324701E+02
H     0.714593E+01  0.317407E+02  0.323209E+02
C     0.749426E+01  0.306342E+02  0.332423E+02
O     0.142599E+02  0.183951E+02  0.297445E+02
H     0.140788E+02  0.188279E+02  0.289129E+02
C     0.145786E+02  0.201818E+02  0.288897E+02
O     0.576982E+01  0.472506E+02  0.114903E+02
H     0.584106E+01  0.463107E+02  0.112718E+02
C     0.627914E+01  0.461402E+02  0.988224E+01
O     0.922790E+01  0.255190E+02  0.238135E+02
H     0.844975E+01  0.249752E+02  0.239002E+02
C     0.792850E+01  0.252126E+02  0.251981E+02
O     0.973279E+01  0.170317E+02  0.125968E+02
H     0.970426E+01  0.171024E+02  0.135682E+02
C     0.109018E+02  0.165508E+02  0.140364E+02
O     0.289486E+02  0.243375E+02  0.212139E+02
H     0.294316E+02  0.235332E+02  0.210283E+02
C     0.287629E+02  0.223491E+02  0.205902E+02
O     0.178231E+01  0.158905E+02  0.472602E+02
H     0.223947E+01  0.156370E+02  0.464814E+02
C     0.286799E+01  0.168835E+02  0.460255E+02
O     0.770663E+01  0.282811E+02  0.279515E+02
H     0.683463E+01  0.285146E+02  0.280774E+02
C     0.665286E+01  0.286528E+02  0.295014E+02
O     0.100472E+02  0.220588E+02  0.577751E+01
H     0.107604E+02  0.226617E+02  0.571952E+01
C     0.120024E+02  0.219044E+02  0.555723E+01
O     0.844359E+01  0.249869E+02  0.670139E+01
H     0.771900E+01  0.251422E+02  0.735770E+01
C     0.695393E+01  0.260814E+02  0.661349E+01
O     0.117509E+02  0.305264E+02  0.212374E+02
H     0.108909E+02  0.301046E+02  0.213230E+02
C     0.104849E+02  0.299178E+02  0.226386E+02
O     0.116852E+02  0.248803E+02  0.267989E+02
H     0.120761E+02  0.244912E+02  0.260197E+02
C     0.127437E+02  0.232807E+02  0.263912E+02
O     0.283678E+02  0.421694E+02  0.404294E+02
H     0.277554E+02  0.419264E+02  0.397083E+02
C     0.273553E+02  0.405475E+02  0.396933E+02
O     0.670424E+00  0.326710E+01  0.749646E+01
H     0.157178E+01  0.355522E+01  0.764803E+01
C     0.228233E+01  0.240672E+01  0.803610E+01
O     0.209758E+02  0.381017E+02  0.281603E+02
H     0.208518E+02  0.371253E+02  0.282768E+02
C     0.218378E+02  0.364482E+02  0.275036E+02
O     0.230113E+01  0.230422E+01  0.190172E+02
H     0.197954E+01  0.315735E+01  0.193910E+02
C     0.109184E+01  0.283689E+01  0.205105E+02
O     0.275007E+02  0.107456E+02  0.106261E+02
H     0.271856E+02  0.108629E+02  0.972878E+01
C     0.266280E+02  0.121573E+02  0.964198E+01
O     0.785781E+01  0.233176E+02  0.231255E+02
H     0.781874E+01  0.224109E+02  0.228320E+02
C     0.649361E+01  0.221048E+02  0.225101E+02
O     0.285143E+02  0.220129E+02  0.745811E+01
H     0.280705E+02  0.227369E+02  0.792480E+01
C     0.267817E+02  0.227242E+02  0.730223E+01
O     0.420500E+01  0.148895E+02  0.383809E+02
H     0.502055E+01  0.153545E+02  0.381915E+02
C     0.618321E+01  0.149455E+02  0.389522E+02
O     0.259060E+02  0.383135E+02  0.178908E+02
H     0.264815E+02  0.385893E+02  0.186259E+02
C     0.274721E+02  0.395329E+02  0.180884E+02
O     0.169589E+02  0.360600E+02  0.283690E+02
H     0.164159E+02  0.365949E+02  0.289277E+02
C     0.167873E+02  0.379596E+02  0.286903E+02
O     0.300246E+02  0.463864E+02  0.416762E+02
H     0.300576E+02  0.456681E+02  0.423064E+02
C     0.293095E+02  0.461725E+02  0.434865E+02
O     0.427891E+02  0.465551E+02  0.274114E+02
H     0.420281E+02  0.470084E+02  0.271099E+02
C     0.422823E+02  0.484415E+02  0.271719E+02
O     0.439746E+02  0.228501E+02  0.426063E+02
H     0.446018E+02  0.229494E+02  0.418184E+02
C     0.440103E+02  0.237227E+02  0.408305E+02
O     0.236187E+02  0.778007E+01  0.236845E+02
H     0.237072E+02  0.723154E+01  0.229057E+02
C     0.246535E+02  0.785597E+01  0.220280E+02
O     0.437078E+01  0.399711E+02  0.426639E+02
H     0.389967E+01  0.391207E+02  0.424668E+02
C     0.332964E+01  0.393580E+02  0.411871E+02
O     0.120891E+01  0.264759E+02  0.211736E+02
H     0.748811E+00  0.273046E+02  0.211871E+02
C     0.951498E+00  0.280892E+02  0.199882E+02
O     0.108036E+02  0.166426E+02  0.255092E+02
H     0.111550E+02  0.158647E+02  0.249950E+02
C     0.126054E+02  0.159819E+02  0.249265E+02
O     0.258187E+02  0.186787E+02  0.210076E+02
H     0.259686E+02  0.195994E+02  0.214316E+02
C     0.253723E+02  0.206722E+02  0.206980E+02
O     0.216523E+02  0.158090E+02  0.299294E+02
H     0.223930E+02  0.152648E+02  0.295816E+02
C     0.233639E+02  0.152528E+02  0.306377E+02
O     0.141795E+02  0.185984E+02  0.343268E+02
H     0.147332E+02  0.187006E+02  0.335250E+02
C     0.143979E+02  0.176364E+02  0.326661E+02
O     0.135578E+02  0.157413E+01  0.322189E+02
H     0.140460E+02  0.740690E+00  0.322826E+02
C     0.147355E+02  0.747963E+00  0.334626E+02
O     0.280417E+02  0.277368E+02  0.353986E+02
H     0.279310E+02  0.286460E+02  0.350888E+02
C     0.282916E+02  0.287009E+02  0.335961E+02
O     0.137471E+01  0.264484E+02  0.390003E+02
H     0.190746E+01  0.268730E+02  0.382931E+02
C     0.118586E+01  0.280057E+02  0.376612E+02
O     0.287154E+02 -0.760684E+00  0.397938E+02
H     0.293643E+02 -0.376396E+00  0.403952E+02
C     0.295284E+02  0.101568E+01  0.402347E+02
O     0.121381E+02  0.419813E+02  0.389676E+02
H     0.128022E+02  0.426380E+02  0.387088E+02
C     0.137041E+02  0.426179E+02  0.398348E+02
O     0.428933E+02  0.213404E+02  0.114526E+02
H     0.434266E+02  0.218653E+02  0.109152E+02
C     0.447812E+02  0.217373E+02  0.113151E+02
O     0.121740E+02  0.432073E+02  0.343394E+02
H     0.125809E+02  0.426663E+02  0.336668E+02
C     0.139979E+02  0.425689E+02  0.340881E+02
O     0.141731E+02  0.110165E+02  0.371423E+02
H     0.143278E+02  0.112746E+02  0.362212E+02
C     0.137693E+02  0.102718E+02  0.353314E+02
O     0.256251E+02  0.167881E+02  0.198494E+02
H     0.251958E+02  0.174538E+02  0.193805E+02
C     0.242743E+02  0.167408E+02  0.185675E+02
O     0.148897E+02  0.352854E+02  0.325169E+02
H     0.141125E+02  0.355896E+02  0.330203E+02
C     0.130066E+02  0.347532E+02  0.325185E+02
O     0.704232E+01  0.189036E+02  0.721867E+01
H     0.765468E+01  0.185413E+02  0.659183E+01
C     0.706256E+01  0.179518E+02  0.547165E+01
O     0.381731E+02  0.340348E+01  0.110331E+02
H     0.374548E+02  0.327927E+01  0.116373E+02
C     0.370902E+02  0.449212E+01  0.122332E+02
O     0.164128E+02  0.353540E+02  0.306327E+02
H     0.160521E+02  0.347647E+02  0.313020E+02
C     0.161888E+02  0.334441E+02  0.308018E+02
O     0.296502E+02  0.295034E+02  0.359098E+02
H     0.304670E+02  0.299982E+02  0.360697E+02
C     0.308603E+02  0.296406E+02  0.373315E+02
O     0.105898E+02  0.239552E+02  0.945529E+01
H     0.113255E+02  0.244655E+02  0.975383E+01
C     0.110295E+02  0.257900E+02  0.949082E+01
O     0.936171E+00  0.303425E+02  0.334540E+02
H     0.185867E+01  0.302444E+02  0.331825E+02
C     0.259088E+01  0.296600E+02  0.343026E+02
O     0.136366E+02  0.297923E+02  0.191438E+02
H     0.142692E+02  0.291567E+02  0.194343E+02
C     0.153335E+02  0.290198E+02  0.184518E+02
O     0.311078E+02  0.140117E+02  0.644819E+01
H     0.320160E+02  0.142210E+02  0.646106E+01
C     0.325122E+02  0.140347E+02  0.516838E+01
O     0.404951E+02  0.422746E+02  0.286787E+02
H     0.413090E+02  0.427572E+02  0.285262E+02
C     0.410946E+02  0.438826E+02  0.276975E+02
O     0.516392E+01  0.300396E+02  0.368661E+02
H     0.481114E+01  0.308032E+02  0.374004E+02
C     0.479705E+01  0.319447E+02  0.365062E+02
O     0.275833E+02  0.356684E+02  0.404432E+02
H     0.275903E+02  0.365899E+02  0.402035E+02
C     0.280295E+02  0.367028E+02  0.389237E+02
O     0.421059E+02  0.220900E+02  0.438468E+02
H     0.429694E+02  0.223853E+02  0.439088E+02
C     0.429363E+02  0.234853E+02  0.447832E+02
O     0.242304E+01  0.136751E+02  0.460094E+02
H     0.258362E+01  0.127588E+02  0.463306E+02
C     0.358825E+01  0.122340E+02  0.455343E+02
O     0.915662E+01  0.409287E+02  0.615671E+01
H     0.881659E+01  0.418331E+02  0.623280E+01
C     0.744562E+01  0.416672E+02  0.647804E+01
O     0.339180E+02  0.144323E+02  0.148233E+02
H     0.339741E+02  0.146415E+02  0.138630E+02
C     0.353056E+02  0.144256E+02  0.135081E+02
O     0.528806E+01  0.426396E+02  0.419902E+02
H     0.529354E+01  0.418178E+02  0.425145E+02
C     0.617349E+01  0.419947E+02  0.435545E+02
O     0.367869E+02  0.250915E+01  0.281818E+02
H     0.360416E+02  0.293367E+01  0.285740E+02
C     0.356979E+02  0.399606E+01  0.276967E+02
O     0.345692E+02  0.289320E+02 -0.848555E+00
H     0.354126E+02  0.290957E+02 -0.438647E+00
C     0.353273E+02  0.284522E+02  0.855706E+00
O     0.180450E+02  0.185170E+02  0.328422E+02
H     0.183650E+02  0.181537E+02  0.319724E+02
C     0.183565E+02  0.193371E+02  0.311758E+02
O     0.274394E+02  0.239115E+02  0.175974E+02
H     0.266610E+02  0.236837E+02  0.180855E+02
C     0.262048E+02  0.248278E+02  0.188345E+02
O     0.270561E+02  0.323873E+02  0.230709E+02
H     0.269906E+02  0.319994E+02  0.239440E+02
C     0.269096E+02  0.306373E+02  0.237222E+02
O     0.239038E+02  0.354521E+02  0.194223E+02
H     0.244193E+02  0.350760E+02  0.186965E+02
C     0.238180E+02  0.350978E+02  0.173063E+02
O     0.311155E+02  0.453235E+02  0.813949E+01
H     0.308953E+02  0.462274E+02  0.820439E+01
C     0.307304E+02  0.466356E+02  0.685252E+01
O     0.247713E+02  0.395243E+02  0.638233E+01
H     0.238947E+02  0.396295E+02  0.660388E+01
C     0.235324E+02  0.408922E+02  0.608354E+01
O     0.114483E+02  0.252663E+02  0.243852E+02
H     0.111829E+02  0.258762E+02  0.236784E+02
C     0.124332E+02  0.263600E+02  0.230513E+02
O     0.504696E+01  0.310146E+02  0.391430E+02
H     0.498510E+01  0.314084E+02  0.400585E+02
C     0.367344E+01  0.320017E+02  0.401354E+02
O     0.247825E+02  0.365070E+02  0.241390E+02
H     0.242237E+02  0.357810E+02  0.242148E+02
C     0.251168E+02  0.346642E+02  0.242893E+02
O     0.101298E+02  0.412796E+02  0.438465E+02
H     0.998935E+01  0.416922E+02  0.446543E+02
C     0.975113E+01  0.406481E+02  0.455644E+02
O     0.372311E+01  0.310478E+02  0.324202E+02
H     0.439620E+01  0.316196E+02  0.321455E+02
C     0.382153E+01  0.321871E+02  0.310129E+02
O     0.311322E+02  0.286273E+02  0.258702E+02
H     0.315499E+02  0.284428E+02  0.266908E+02
C     0.313254E+02  0.294926E+02  0.276667E+02
O     0.386547E+02  0.206839E+02  0.283014E+02
H     0.389270E+02  0.200597E+02  0.289819E+02
C     0.400915E+02  0.206003E+02  0.295173E+02
O     0.466896E+02  0.329738E+01  0.627668E+01
H     0.471198E+02  0.287063E+01  0.705128E+01
C     0.462169E+02  0.282243E+01  0.819007E+01
O     0.803139E+01  0.159172E+02  0.367264E+02
H     0.894355E+01  0.158607E+02  0.369233E+02
C     0.936736E+01  0.169841E+02  0.377085E+02
O     0.195270E+02  0.169927E+02  0.312729E+02
H     0.199343E+02  0.162655E+02  0.306952E+02
C     0.192945E+02  0.150410E+02  0.310378E+02
O     0.320215E+02  0.266756E+02  0.270401E+02
H     0.317897E+02  0.257886E+02  0.273792E+02
C     0.323642E+02  0.257866E+02  0.287032E+02
O     0.334290E+02  0.272734E+02  0.462741E+02
H     0.328641E+02  0.278171E+02  0.467846E+02
C     0.319048E+02  0.268998E+02  0.473586E+02
O     0.218466E+02 -0.412604E+00  0.681988E+01
H     0.227507E+02 -0.685434E+00  0.711033E+01
C     0.233584E+02  0.452179E+00  0.782407E+01
O     0.156137E+02  0.274452E+02  0.212225E+02
H     0.163432E+02  0.278361E+02  0.216917E+02
C     0.175486E+02  0.271631E+02  0.211497E+02
O     0.583982E+01  0.154796E+02  0.367103E+02
H     0.631505E+01  0.156998E+02  0.359368E+02
C     0.558115E+01  0.149436E+02  0.348716E+02
O     0.271457E+02  0.435112E+02  0.386049E+02
H     0.266473E+02  0.441787E+02  0.382140E+02
C     0.256243E+02  0.434505E+02  0.374761E+02
O     0.178176E+01  0.108897E+01  0.173125E+02
H     0.198239E+01  0.699955E+00  0.181736E+02
C     0.125640E+01 -0.545509E+00  0.186050E+02
O     0.985995E+00  0.248993E+02  0.414704E+02
H     0.522195E+00  0.254639E+02  0.408758E+02
C    -0.538173E+00  0.259954E+02  0.416578E+02
O     0.320941E+02  0.367225E+02  0.386797E+02
H     0.313890E+02  0.361416E+02  0.383897E+02
C     0.312230E+02  0.363224E+02  0.369426E+02
O     0.916446E+01  0.181174E+02  0.150310E+02
H     0.900311E+01  0.186842E+02  0.157939E+02
C     0.882262E+01  0.178069E+02  0.169065E+02
O    -0.496598E+00  0.143239E+02  0.400315E+01
H    -0.119498E+01  0.149161E+02  0.428952E+01
C    -0.238148E+01  0.146031E+02  0.359476E+01
O     0.293132E+02  0.231167E+02  0.163382E+02
H     0.290415E+02  0.237440E+02  0.169549E+02
C     0.302706E+02  0.241438E+02  0.175321E+02
O     0.305304E+02  0.344546E+02  0.386310E+02
H     0.302409E+02  0.335793E+02  0.389575E+02
C     0.313620E+02  0.328610E+02  0.395563E+02
O     0.190181E+00  0.929645E+01  0.167694E+02
H     0.689447E+00  0.976266E+01  0.160922E+02
C     0.207090E+01  0.984256E+01  0.164593E+02
O     0.384923E+02  0.414543E+02  0.269789E+02
H     0.380125E+02  0.415820E+02  0.261306E+02
C     0.390258E+02  0.418730E+02  0.251315E+02
O     0.299273E+02  0.936767E+01  0.690198E+01
H     0.301852E+02  0.101421E+02  0.637138E+01
C     0.316012E+02  0.989987E+01  0.588473E+01
O     0.185858E+02  0.408457E+02  0.294972E+01
H     0.184802E+02  0.415743E+02  0.232998E+01
C     0.171391E+02  0.421957E+02  0.230256E+01
O     0.105883E+02  0.364246E+02  0.331567E+02
H     0.107368E+02  0.371709E+02  0.325295E+02
C     0.117625E+02  0.380104E+02  0.331893E+02
O     0.314509E+02  0.156916E+02  0.735190E+01
H     0.310969E+02  0.165061E+02  0.771133E+01
C     0.321571E+02  0.175047E+02  0.749496E+01
O     0.116072E+02  0.176287E+02  0.351788E+02
H     0.119288E+02  0.185194E+02  0.350107E+02
C     0.109682E+02  0.191160E+02  0.341000E+02
O     0.295899E+02  0.118876E+02  0.643257E+01
H     0.296829E+02  0.128610E+02  0.635494E+01
C     0.287209E+02  0.135098E+02  0.717249E+01
O     0.268820E+02  0.341369E+02 -0.775527E-01
H     0.276482E+02  0.336891E+02 -0.317550E+00
C     0.285483E+02  0.338013E+02  0.737411E+00
O     0.286825E+02  0.377099E+02  0.412370E+02
H     0.295433E+02  0.380597E+02  0.415346E+02
C     0.300457E+02  0.374111E+02  0.427207E+02
O     0.179438E+02  0.388010E+02  0.133545E+01
H     0.180148E+02  0.380019E+02  0.192995E+01
C     0.185914E+02  0.369408E+02  0.120018E+01
O     0.290958E+02  0.259674E+02  0.229072E+02
H     0.285338E+02  0.257669E+02  0.221361E+02
C     0.274722E+02  0.267532E+02  0.220101E+02
O     0.604329E+01  0.302293E+02  0.407036E+02
H     0.654142E+01  0.295652E+02  0.412480E+02
C     0.629474E+01  0.282762E+02  0.406185E+02
O     0.131217E+02  0.196534E+02  0.357887E+02
H     0.137433E+02  0.202964E+02  0.361266E+02
C     0.132842E+02  0.208912E+02  0.373806E+02
O     0.184104E+01  0.145238E+02  0.392303E+02
H     0.248080E+01  0.140163E+02  0.387942E+02
C     0.198439E+01  0.126183E+02  0.387828E+02
O     0.289557E+02  0.336650E+02  0.404635E+02
H     0.284287E+02  0.340657E+02  0.411013E+02
C     0.285530E+02  0.331909E+02  0.422593E+02
O     0.183483E+02  0.779820E+01  0.375938E+02
H     0.174607E+02  0.821196E+01  0.374728E+02
C     0.175177E+02  0.958987E+01  0.371979E+02
O     0.273333E+02  0.256740E+02  0.340977E+02
H     0.265659E+02  0.254430E+02  0.335847E+02
C     0.254191E+02  0.254729E+02  0.344284E+02
O     0.545046E+01  0.297727E+02  0.447156E+02
H     0.468439E+01  0.296120E+02  0.453859E+02
C     0.435093E+01  0.309014E+02  0.460187E+02
O     0.193812E+02  0.359393E+02  0.274664E+02
H     0.186375E+02  0.353855E+02  0.274419E+02
C     0.189272E+02  0.341612E+02  0.279470E+02
O     0.310397E+02  0.384557E+02  0.405883E+02
H     0.319004E+02  0.386420E+02  0.401379E+02
C     0.315402E+02  0.395770E+02  0.391303E+02
O     0.369384E+02  0.442069E+02  0.301364E+02
H     0.370106E+02  0.432399E+02  0.303875E+02
C     0.357700E+02  0.428439E+02  0.308239E+02
O     0.218233E+02  0.316781E+02  0.448576E+02
H     0.224963E+02  0.310311E+02  0.450847E+02
C     0.236790E+02  0.311918E+02  0.442854E+02
